! Opt MP2 6-31g(d) PAL4

*xyz 0 1
C     -4.355260    1.409116   -0.541022
C     -2.109724    1.900174    0.227688
C     -3.362289    2.343310   -0.218660
H     -0.875853    0.183544    0.659151
C     -4.088267    0.042500   -0.447531
H     -4.862726   -0.679064   -0.693845
H     -5.340164    1.745561   -0.860555
C     -3.703944    3.786271   -0.318978
C     -2.832972   -0.394585   -0.026370
C     -1.846164    0.531300    0.311876
H     -2.628629   -1.459845    0.050833
H     -1.341007    2.600341    0.544293
O     -2.656637    4.580101   -0.626676
H     -1.850299    4.108222   -0.904911
O     -4.839386    4.209922   -0.175094
*
