17
Coordinates from ORCA-job geom_opt E -474.725663645151
  C      -1.647000      0.862000      0.080000
  C      -0.249000      0.942000      0.085000
  C      -2.291000     -0.379000      0.014000
  C       0.534000     -0.240000      0.020000
  C      -1.535000     -1.552000     -0.045000
  C      -0.138000     -1.485000     -0.042000
  H      -2.029000     -2.513000     -0.094000
  H       0.429000     -2.403000     -0.097000
  C       2.039000     -0.163000     -0.024000
  H      -2.244000      1.761000      0.139000
  N       0.326000      2.206000      0.176000
  O       2.688000      0.856000     -0.222000
  O       2.744000     -1.349000      0.167000
  H       3.684000     -1.174000      0.121000
  H      -3.370000     -0.431000      0.015000
  H       1.306000      2.156000     -0.040000
  H      -0.247000      2.906000     -0.243000
17
Coordinates from ORCA-job geom_opt E -474.733093106286
  C      -1.637377      0.849120      0.073083
  C      -0.235900      0.959531      0.064739
  C      -2.262393     -0.394671      0.013073
  C       0.539321     -0.227757      0.016318
  C      -1.495696     -1.563369     -0.042149
  C      -0.107933     -1.476220     -0.035405
  H      -1.978181     -2.535957     -0.085417
  H       0.484867     -2.386190     -0.074631
  C       2.012571     -0.169117     -0.011089
  H      -2.245681      1.749066      0.133702
  N       0.331515      2.231735      0.167773
  O       2.692448      0.843112     -0.165487
  O       2.611635     -1.388575      0.139806
  H       3.574378     -1.234371      0.091342
  H      -3.348253     -0.455505      0.015877
  H       1.318886      2.238344     -0.072492
  H      -0.254209      2.960823     -0.219040
17
Coordinates from ORCA-job geom_opt E -474.733864480185
  C      -1.635473      0.842352      0.065184
  C      -0.231832      0.958941      0.051644
  C      -2.258560     -0.398197      0.011991
  C       0.535737     -0.231422      0.018562
  C      -1.494329     -1.570819     -0.034367
  C      -0.108961     -1.481082     -0.028439
  H      -1.977118     -2.543810     -0.074700
  H       0.491053     -2.384911     -0.062080
  C       2.005445     -0.168324     -0.014226
  H      -2.240103      1.746696      0.117998
  N       0.342291      2.220582      0.165727
  O       2.686831      0.852588     -0.110220
  O       2.588474     -1.388860      0.110675
  H       3.552952     -1.217288      0.070956
  H      -3.345407     -0.454517      0.013756
  H       1.323438      2.249205     -0.094150
  H      -0.234435      2.968866     -0.198310
17
Coordinates from ORCA-job geom_opt E -474.733482546595
  C      -1.636193      0.838053      0.040816
  C      -0.230590      0.960944      0.052111
  C      -2.256291     -0.400355     -0.008852
  C       0.533653     -0.232574      0.056662
  C      -1.493593     -1.576360     -0.018107
  C      -0.110106     -1.483806      0.008970
  H      -1.975987     -2.549491     -0.055933
  H       0.496981     -2.382245     -0.001962
  C       2.006138     -0.169164      0.037066
  H      -2.237577      1.746383      0.063483
  N       0.339588      2.215389      0.182453
  O       2.690049      0.846650     -0.102074
  O       2.579969     -1.396719      0.054464
  H       3.541786     -1.212298     -0.027805
  H      -3.343260     -0.452649     -0.028725
  H       1.320369      2.270494     -0.069857
  H      -0.224935      2.977748     -0.172709
17
Coordinates from ORCA-job geom_opt E -474.734132294587
  C      -1.637227      0.839994      0.048551
  C      -0.231957      0.959962      0.049780
  C      -2.259498     -0.398671     -0.001282
  C       0.534153     -0.233878      0.037622
  C      -1.497496     -1.574490     -0.020436
  C      -0.112836     -1.484016     -0.008063
  H      -1.981354     -2.546666     -0.056686
  H       0.491964     -2.384598     -0.028437
  C       2.009078     -0.173445     -0.002635
  H      -2.237673      1.748146      0.078508
  N       0.337114      2.216251      0.177288
  O       2.694206      0.845088     -0.103873
  O       2.596217     -1.397325      0.075969
  H       3.558533     -1.212661      0.024996
  H      -3.346292     -0.450695     -0.010494
  H       1.317038      2.269605     -0.080230
  H      -0.233968      2.977400     -0.170577
17
Coordinates from ORCA-job geom_opt E -474.734148314267
  C      -1.637381      0.840072      0.048825
  C      -0.232177      0.958473      0.052538
  C      -2.260309     -0.398874     -0.002084
  C       0.533238     -0.234903      0.040685
  C      -1.498628     -1.574924     -0.018935
  C      -0.113653     -1.484755     -0.007578
  H      -1.982984     -2.546746     -0.055965
  H       0.491876     -2.385199     -0.026990
  C       2.006410     -0.172022     -0.003456
  H      -2.236649      1.748953      0.074262
  N       0.339518      2.213569      0.177021
  O       2.687585      0.848627     -0.104492
  O       2.598977     -1.394937      0.073806
  H       3.559906     -1.207731      0.022433
  H      -3.347034     -0.450389     -0.012369
  H       1.320474      2.264351     -0.077534
  H      -0.229169      2.976437     -0.170166
17
Coordinates from ORCA-job geom_opt E -474.734155106790
  C      -1.637558      0.840141      0.047905
  C      -0.232341      0.958929      0.052277
  C      -2.260018     -0.399139     -0.003383
  C       0.533553     -0.234512      0.042156
  C      -1.498168     -1.575067     -0.017266
  C      -0.113240     -1.484388     -0.006606
  H      -1.982523     -2.546838     -0.054456
  H       0.493454     -2.384168     -0.023818
  C       2.006262     -0.172802     -0.003861
  H      -2.236435      1.749291      0.069903
  N       0.338320      2.213700      0.176601
  O       2.688804      0.846842     -0.104193
  O       2.598614     -1.396664      0.071305
  H       3.559245     -1.209794      0.019384
  H      -3.346696     -0.450650     -0.014030
  H       1.319400      2.266821     -0.076136
  H      -0.230673      2.978298     -0.165781
17
Coordinates from ORCA-job geom_opt E -474.734157782217
  C      -1.637813      0.840061      0.047566
  C      -0.232544      0.958992      0.051181
  C      -2.259949     -0.399356     -0.004052
  C       0.533637     -0.234494      0.042827
  C      -1.498100     -1.575256     -0.016313
  C      -0.113260     -1.484422     -0.006156
  H      -1.982656     -2.546913     -0.054151
  H       0.494097     -2.383696     -0.021771
  C       2.006172     -0.172966     -0.003331
  H      -2.236460      1.749406      0.067738
  N       0.338079      2.213241      0.174693
  O       2.689357      0.846380     -0.102786
  O       2.598555     -1.397233      0.069665
  H       3.559166     -1.210233      0.017422
  H      -3.346657     -0.450795     -0.014311
  H       1.319571      2.267418     -0.075846
  H      -0.231197      2.979865     -0.162376
17
Coordinates from ORCA-job geom_opt E -474.734160687308
  C      -1.637971      0.840007      0.047660
  C      -0.232642      0.958972      0.050356
  C      -2.259911     -0.399431     -0.004086
  C       0.533691     -0.234560      0.042763
  C      -1.498061     -1.575336     -0.016048
  C      -0.113303     -1.484513     -0.006285
  H      -1.982776     -2.546900     -0.054485
  H       0.494255     -2.383635     -0.021503
  C       2.006166     -0.172915     -0.003005
  H      -2.236668      1.749340      0.067450
  N       0.338220      2.212868      0.172412
  O       2.689583      0.846453     -0.101779
  O       2.598347     -1.397222      0.069322
  H       3.559061     -1.210205      0.017411
  H      -3.346645     -0.450889     -0.013631
  H       1.320179      2.267193     -0.075958
  H      -0.231526      2.980774     -0.160595
17
Coordinates from ORCA-job geom_opt E -474.734159950742
  C      -1.637988      0.839984      0.047676
  C      -0.232605      0.958929      0.049905
  C      -2.259921     -0.399397     -0.003812
  C       0.533682     -0.234674      0.042315
  C      -1.498103     -1.575360     -0.016149
  C      -0.113377     -1.484618     -0.006535
  H      -1.982893     -2.546888     -0.054632
  H       0.494028     -2.383843     -0.021943
  C       2.006219     -0.172850     -0.002838
  H      -2.236837      1.749222      0.067827
  N       0.338460      2.212625      0.170820
  O       2.689521      0.846756     -0.100760
  O       2.598316     -1.397013      0.069257
  H       3.559110     -1.209921      0.017925
  H      -3.346665     -0.450881     -0.012894
  H       1.320744      2.266877     -0.076109
  H      -0.231691      2.981054     -0.160051
