14
Coordinates from ORCA-job aniline E -286.638415928540
  C      -4.326362      1.379215     -0.275913
  C      -2.013811      1.807348      0.216399
  C      -3.289747      2.295145     -0.077367
  H      -0.752178      0.071014      0.418438
  C      -4.072599      0.005144     -0.286513
  H      -4.885601     -0.694962     -0.460797
  H      -5.344245      1.728737     -0.424356
  N      -3.571256      3.660963      0.054756
  C      -2.783203     -0.467098     -0.055228
  C      -1.754318      0.434397      0.206748
  H      -2.584599     -1.535666     -0.056466
  H      -1.207586      2.495286      0.456152
  H      -2.768937      4.258069     -0.117722
  H      -4.389935      3.957906     -0.466318
14
Coordinates from ORCA-job aniline E -286.639247928176
  C      -4.334923      1.376005     -0.257723
  C      -2.012539      1.806024      0.236532
  C      -3.301099      2.293912     -0.023419
  H      -0.744967      0.073927      0.401056
  C      -4.074803      0.004375     -0.284385
  H      -4.885799     -0.693206     -0.480266
  H      -5.348446      1.731948     -0.438824
  N      -3.573898      3.669913      0.059714
  C      -2.784199     -0.472483     -0.045220
  C      -1.753062      0.434284      0.209845
  H      -2.581791     -1.540689     -0.065202
  H      -1.199371      2.500624      0.444054
  H      -2.769773      4.254526     -0.139408
  H      -4.379706      3.956339     -0.484940
14
Coordinates from ORCA-job aniline E -286.639324737700
  C      -4.335429      1.374977     -0.260058
  C      -2.010810      1.805494      0.234678
  C      -3.302376      2.293073     -0.016885
  H      -0.744654      0.075572      0.400735
  C      -4.074202      0.004316     -0.284075
  H      -4.886533     -0.691695     -0.480970
  H      -5.346359      1.735387     -0.446775
  N      -3.575420      3.669450      0.067501
  C      -2.784241     -0.475489     -0.042076
  C      -1.753695      0.434059      0.209935
  H      -2.581934     -1.543368     -0.062409
  H      -1.199106      2.503674      0.435745
  H      -2.772620      4.253597     -0.139851
  H      -4.376998      3.956451     -0.483681
14
Coordinates from ORCA-job aniline E -286.639345958723
  C      -4.335175      1.374276     -0.262288
  C      -2.009876      1.804984      0.232655
  C      -3.302311      2.292316     -0.016567
  H      -0.744825      0.076552      0.400916
  C      -4.073393      0.004178     -0.283613
  H      -4.886828     -0.690695     -0.480895
  H      -5.344632      1.738342     -0.448791
  N      -3.576348      3.668637      0.072805
  C      -2.783967     -0.477339     -0.041542
  C      -1.754522      0.433678      0.210073
  H      -2.582101     -1.545062     -0.060478
  H      -1.200700      2.505960      0.433147
  H      -2.774577      4.253050     -0.140594
  H      -4.375124      3.956621     -0.483014
14
Coordinates from ORCA-job aniline E -286.639348834413
  C      -4.335084      1.374124     -0.262402
  C      -2.009837      1.804832      0.232580
  C      -3.302058      2.292030     -0.017435
  H      -0.744833      0.076708      0.400711
  C      -4.073178      0.004090     -0.283450
  H      -4.886800     -0.690507     -0.481115
  H      -5.344383      1.739363     -0.447082
  N      -3.576500      3.668478      0.073797
  C      -2.783748     -0.477462     -0.042420
  C      -1.754729      0.433526      0.210159
  H      -2.582109     -1.545204     -0.060489
  H      -1.201892      2.506675      0.434654
  H      -2.774851      4.252544     -0.141936
  H      -4.374374      3.956302     -0.483760
14
Coordinates from ORCA-job aniline E -286.639349338512
  C      -4.335135      1.374120     -0.262029
  C      -2.009925      1.804812      0.232985
  C      -3.301956      2.291880     -0.017707
  H      -0.744731      0.076680      0.400461
  C      -4.073218      0.004043     -0.283423
  H      -4.886776     -0.690524     -0.481404
  H      -5.344489      1.739797     -0.445469
  N      -3.576523      3.668578      0.073952
  C      -2.783631     -0.477187     -0.043200
  C      -1.754677      0.433493      0.210219
  H      -2.582078     -1.544973     -0.060935
  H      -1.202564      2.506970      0.436239
  H      -2.774699      4.252007     -0.143220
  H      -4.373976      3.955804     -0.484655
