! Opt MP2 6-31g(d) PAL4

*xyz 0 1
C     -4.326362    1.379215   -0.275913
C     -2.013811    1.807348    0.216399
C     -3.289747    2.295145   -0.077367
H     -0.752178    0.071014    0.418438
C     -4.072599    0.005144   -0.286513
H     -4.885601   -0.694962   -0.460797
H     -5.344245    1.728737   -0.424356
N     -3.571256    3.660963    0.054756
C     -2.783203   -0.467098   -0.055228
C     -1.754318    0.434397    0.206748
H     -2.584599   -1.535666   -0.056466
H     -1.207586    2.495286    0.456152
H     -2.768937    4.258069   -0.117722
H     -4.389935    3.957906   -0.466318
*
